//* test vectors for debugging Beta PC circuitry

//* allow verification, but not a real checkin
.checkoff "" "Lab #6: pc" 0

.verify ia[31:0] periodic(199n,100n)
+ 0x000 0x004 0x008 0x00C 0x010 0x014 0x018 0x01C 0x020 0x024 0x028 0x02C 0x030 0x034 0x038 0x03C
+ 0x040 0x044 0x048 0x04C 0x050 0x054 0x058 0x05C 0x060 0x064 0x068 0x06C 0x070 0x074 0x078 0x07C
+ 0x080 0x084 0x088 0x08C 0x090 0x094 0x098 0x09C 0x0A0 0x0A4 0x0A8 0x0AC 0x0B0 0x0B4 0x0B8 0x0BC
+ 0x0C0 0x0C4 0x0C8 0x0CC 0x0D0 0x0D4 0x0D8 0x0DC 0x0E0 0x0E4 0x0E8 0x0EC 0x0F0 0x0F4 0x0F8 0x0FC
+ 0x100 0x104 0x108 0x10C 0x110 0x114 0x118 0x11C 0x120 0x124 0x128 0x12C 0x130 0x134 0x138 0x13C
+ 0x140 0x144 0x148 0x14C 0x150 0x154 0x158 0x15C 0x160 0x164 0x168 0x16C 0x170 0x174 0x178 0x17C
+ 0x180 0x184 0x188 0x18C 0x190 0x194 0x198 0x19C 0x1A0 0x1A4 0x1A8 0x1AC 0x1B0 0x1B4 0x1B8 0x1BC
+ 0x1C0 0x1C4 0x1C8 0x1CC 0x1D0 0x1D4 0x1D8 0x1DC 0x1E0 0x1E4 0x1E8 0x1EC 0x1F0 0x1F4 0x1F8 0x1FC
+ 0x200 0x204 0x208 0x20C 0x210 0x214 0x218 0x21C 0x220 0x224 0x228 0x22C 0x230 0x234 0x238 0x23C
+ 0x240 0x244 0x248 0x24C 0x250 0x254 0x258 0x25C 0x260 0x264 0x268 0x26C 0x270 0x274 0x278 0x27C
+ 0x280 0x284 0x288 0x28C 0x290 0x294 0x298 0x29C 0x2A0 0x2A4 0x2A8 0x2AC 0x2B0 0x2B4 0x2B8 0x2BC
+ 0x2C0 0x2C4 0x2C8 0x2CC 0x2D0 0x2D4 0x2D8 0x2DC 0x2E0 0x2E4 0x2E8 0x2EC 0x2F0 0x2F4 0x2F8 0x2FC
+ 0x300 0x304 0x308 0x30C 0x310 0x314 0x318 0x31C 0x320 0x324 0x328 0x32C 0x330 0x334 0x338 0x33C
+ 0x340 0x344 0x348 0x34C 0x350 0x354 0x358 0x35C 0x360 0x364 0x368 0x36C 0x370 0x374 0x378 0x37C
+ 0x380 0x384 0x388 0x38C 0x390 0x394 0x398 0x39C 0x3A0 0x3A4 0x3A8 0x3AC 0x3B0 0x3B4 0x3B8 0x3BC
+ 0x3C0 0x3C4


Xpc pc clk reset ia[31:0]

Vclk clk gnd pulse(3.3,0,49.9ns,.1ns,.1ns,49.9ns,100ns)
Vreset reset gnd pwl(0ns 3.3v, 101ns 3.3v, 101.1ns 0v)

//* Run the simulation for 243 cycles
.tran 24300ns

/* Some useful plots... you can plot additional signals by specifying
* the appropriate .plot commands in your main netlist file.
*/
.plot clk
.plot reset
.plot ia[31:0]
