// This is a machine-generated file; do not edit.
//
// information on how to contact the on-line assignments server.  A checksum
// is included that is computed from the .verify statements, so don't change
// those or you won't be able to complete your checkoff!

.checkoff "6004.mit.edu/currentsemester/6004assignment.doit" "Lab #3" 1914684805

// instantiate alu
Xalu alu fn[4:0] a[31:0] b[31:0] y[31:0] z v n

// Run the simulation long enough to test all input values
.tran 122200n

// Some useful plots... you can plot additional signals by specifying
// the appropriate .plot commands in your main netlist file.

.plotdef op
+ ADD SUB MUL "???" "???" CMPEQ "???" CMPLT SHL SHR "???" SRA "???" CMPLE "???" "???"
+ F0000 F0001 F0010 F0011 F0100 F0101 XOR F0111 AND XNOR A F1011 F1100 F1101 OR F1111

.plot L(a[31:0])
.plot L(b[31:0])
.plot op(fn[4:0])
.plot L(y[31:0])
.plot z
.plot n
.plot v

Wfn fn[4:0] nrz(0, 3.3, 100n, 0n, .1n,.1n)
+ 0x0 // 0ns:  [ADD 0x0 0x0]
+ 0x0 // 100ns:  [ADD 0x55555555 0x0]
+ 0x0 // 200ns:  [ADD 0x0 0x55555555]
+ 0x0 // 300ns:  [ADD 0x55555555 0x55555555]
+ 0x0 // 400ns:  [ADD 0xaaaaaaaa 0x0]
+ 0x0 // 500ns:  [ADD 0x0 0xaaaaaaaa]
+ 0x0 // 600ns:  [ADD 0xaaaaaaaa 0xaaaaaaaa]
+ 0x0 // 700ns:  [ADD 0xffffffff 0xffffffff]
+ 0x0 // 800ns:  [ADD 0x1 0xffffffff]
+ 0x1 // 900ns:  [SUB 0xffffffff 0x0]
+ 0x0 // 1000ns:  [ADD 0x1 0x0]
+ 0x1 // 1100ns:  [SUB 0xfffffff2 0xfffffff0]
+ 0x0 // 1200ns:  [ADD 0x1 0x3]
+ 0x0 // 1300ns:  [ADD 0xaaaaaaac 0x5555555c]
+ 0x1 // 1400ns:  [SUB 0xffffffff 0xffffffef]
+ 0x0 // 1500ns:  [ADD 0x2 0x1e]
+ 0x1 // 1600ns:  [SUB 0x0 0xffffffc0]
+ 0x1 // 1700ns:  [SUB 0x7f 0xffffffff]
+ 0x0 // 1800ns:  [ADD 0x80 0x80]
+ 0x0 // 1900ns:  [ADD 0x180 0x80]
+ 0x0 // 2000ns:  [ADD 0x380 0x80]
+ 0x0 // 2100ns:  [ADD 0x780 0x80]
+ 0x0 // 2200ns:  [ADD 0x1000 0x0]
+ 0x0 // 2300ns:  [ADD 0x1000 0x1000]
+ 0x0 // 2400ns:  [ADD 0x3000 0x1000]
+ 0x0 // 2500ns:  [ADD 0x7000 0x1000]
+ 0x0 // 2600ns:  [ADD 0xf000 0x1000]
+ 0x1 // 2700ns:  [SUB 0x1000 0xfffe1000]
+ 0x1 // 2800ns:  [SUB 0x1000 0xfffc1000]
+ 0x0 // 2900ns:  [ADD 0x7f800 0x800]
+ 0x0 // 3000ns:  [ADD 0xffc00 0x400]
+ 0x0 // 3100ns:  [ADD 0x1ffe00 0x200]
+ 0x0 // 3200ns:  [ADD 0x3fff00 0x100]
+ 0x1 // 3300ns:  [SUB 0x80 0xff800080]
+ 0x0 // 3400ns:  [ADD 0xff000000 0x2000000]
+ 0x0 // 3500ns:  [ADD 0x4000000 0xfe000000]
+ 0x0 // 3600ns:  [ADD 0x3000fff 0xfff001]
+ 0x0 // 3700ns:  [ADD 0x70007ff 0xfff801]
+ 0x0 // 3800ns:  [ADD 0xf0003ff 0xfffc01]
+ 0x0 // 3900ns:  [ADD 0x1f0001ff 0xfffe01]
+ 0x0 // 4000ns:  [ADD 0x3f0000ff 0xffff01]
+ 0x1 // 4100ns:  [SUB 0x80000001 0x1]
+ 0x5 // 4200ns:  [CMPEQ 0x5 0x4]
+ 0x7 // 4300ns:  [CMPLT 0x5 0x4]
+ 0xd // 4400ns:  [CMPLE 0x5 0x4]
+ 0x5 // 4500ns:  [CMPEQ 0x5 0x5]
+ 0x7 // 4600ns:  [CMPLT 0x5 0x5]
+ 0xd // 4700ns:  [CMPLE 0x5 0x5]
+ 0x5 // 4800ns:  [CMPEQ 0x5 0x6]
+ 0x7 // 4900ns:  [CMPLT 0x5 0x6]
+ 0xd // 5000ns:  [CMPLE 0x5 0x6]
+ 0x5 // 5100ns:  [CMPEQ 0x-5 0x-4]
+ 0x7 // 5200ns:  [CMPLT 0x-5 0x-4]
+ 0xd // 5300ns:  [CMPLE 0x-5 0x-4]
+ 0x5 // 5400ns:  [CMPEQ 0x-5 0x-5]
+ 0x7 // 5500ns:  [CMPLT 0x-5 0x-5]
+ 0xd // 5600ns:  [CMPLE 0x-5 0x-5]
+ 0x5 // 5700ns:  [CMPEQ 0x-5 0x-6]
+ 0x7 // 5800ns:  [CMPLT 0x-5 0x-6]
+ 0xd // 5900ns:  [CMPLE 0x-5 0x-6]
+ 0x10 // 6000ns:  [F0000 0x0 0x0]
+ 0x10 // 6100ns:  [F0000 0x0 0xffffffff]
+ 0x10 // 6200ns:  [F0000 0x0 0x1234]
+ 0x10 // 6300ns:  [F0000 0x0 0xf0f]
+ 0x10 // 6400ns:  [F0000 0x0 0xaaaaaaaa]
+ 0x10 // 6500ns:  [F0000 0x0 0x55555555]
+ 0x10 // 6600ns:  [F0000 0xffffffff 0x0]
+ 0x10 // 6700ns:  [F0000 0xffffffff 0xffffffff]
+ 0x10 // 6800ns:  [F0000 0xffffffff 0x1234]
+ 0x10 // 6900ns:  [F0000 0xffffffff 0xf0f]
+ 0x10 // 7000ns:  [F0000 0xffffffff 0xaaaaaaaa]
+ 0x10 // 7100ns:  [F0000 0xffffffff 0x55555555]
+ 0x10 // 7200ns:  [F0000 0x1234 0x0]
+ 0x10 // 7300ns:  [F0000 0x1234 0xffffffff]
+ 0x10 // 7400ns:  [F0000 0x1234 0x1234]
+ 0x10 // 7500ns:  [F0000 0x1234 0xf0f]
+ 0x10 // 7600ns:  [F0000 0x1234 0xaaaaaaaa]
+ 0x10 // 7700ns:  [F0000 0x1234 0x55555555]
+ 0x10 // 7800ns:  [F0000 0xf0f 0x0]
+ 0x10 // 7900ns:  [F0000 0xf0f 0xffffffff]
+ 0x10 // 8000ns:  [F0000 0xf0f 0x1234]
+ 0x10 // 8100ns:  [F0000 0xf0f 0xf0f]
+ 0x10 // 8200ns:  [F0000 0xf0f 0xaaaaaaaa]
+ 0x10 // 8300ns:  [F0000 0xf0f 0x55555555]
+ 0x10 // 8400ns:  [F0000 0xaaaaaaaa 0x0]
+ 0x10 // 8500ns:  [F0000 0xaaaaaaaa 0xffffffff]
+ 0x10 // 8600ns:  [F0000 0xaaaaaaaa 0x1234]
+ 0x10 // 8700ns:  [F0000 0xaaaaaaaa 0xf0f]
+ 0x10 // 8800ns:  [F0000 0xaaaaaaaa 0xaaaaaaaa]
+ 0x10 // 8900ns:  [F0000 0xaaaaaaaa 0x55555555]
+ 0x10 // 9000ns:  [F0000 0x55555555 0x0]
+ 0x10 // 9100ns:  [F0000 0x55555555 0xffffffff]
+ 0x10 // 9200ns:  [F0000 0x55555555 0x1234]
+ 0x10 // 9300ns:  [F0000 0x55555555 0xf0f]
+ 0x10 // 9400ns:  [F0000 0x55555555 0xaaaaaaaa]
+ 0x10 // 9500ns:  [F0000 0x55555555 0x55555555]
+ 0x11 // 9600ns:  [F0001 0x0 0x0]
+ 0x11 // 9700ns:  [F0001 0x0 0xffffffff]
+ 0x11 // 9800ns:  [F0001 0x0 0x1234]
+ 0x11 // 9900ns:  [F0001 0x0 0xf0f]
+ 0x11 // 10000ns:  [F0001 0x0 0xaaaaaaaa]
+ 0x11 // 10100ns:  [F0001 0x0 0x55555555]
+ 0x11 // 10200ns:  [F0001 0xffffffff 0x0]
+ 0x11 // 10300ns:  [F0001 0xffffffff 0xffffffff]
+ 0x11 // 10400ns:  [F0001 0xffffffff 0x1234]
+ 0x11 // 10500ns:  [F0001 0xffffffff 0xf0f]
+ 0x11 // 10600ns:  [F0001 0xffffffff 0xaaaaaaaa]
+ 0x11 // 10700ns:  [F0001 0xffffffff 0x55555555]
+ 0x11 // 10800ns:  [F0001 0x1234 0x0]
+ 0x11 // 10900ns:  [F0001 0x1234 0xffffffff]
+ 0x11 // 11000ns:  [F0001 0x1234 0x1234]
+ 0x11 // 11100ns:  [F0001 0x1234 0xf0f]
+ 0x11 // 11200ns:  [F0001 0x1234 0xaaaaaaaa]
+ 0x11 // 11300ns:  [F0001 0x1234 0x55555555]
+ 0x11 // 11400ns:  [F0001 0xf0f 0x0]
+ 0x11 // 11500ns:  [F0001 0xf0f 0xffffffff]
+ 0x11 // 11600ns:  [F0001 0xf0f 0x1234]
+ 0x11 // 11700ns:  [F0001 0xf0f 0xf0f]
+ 0x11 // 11800ns:  [F0001 0xf0f 0xaaaaaaaa]
+ 0x11 // 11900ns:  [F0001 0xf0f 0x55555555]
+ 0x11 // 12000ns:  [F0001 0xaaaaaaaa 0x0]
+ 0x11 // 12100ns:  [F0001 0xaaaaaaaa 0xffffffff]
+ 0x11 // 12200ns:  [F0001 0xaaaaaaaa 0x1234]
+ 0x11 // 12300ns:  [F0001 0xaaaaaaaa 0xf0f]
+ 0x11 // 12400ns:  [F0001 0xaaaaaaaa 0xaaaaaaaa]
+ 0x11 // 12500ns:  [F0001 0xaaaaaaaa 0x55555555]
+ 0x11 // 12600ns:  [F0001 0x55555555 0x0]
+ 0x11 // 12700ns:  [F0001 0x55555555 0xffffffff]
+ 0x11 // 12800ns:  [F0001 0x55555555 0x1234]
+ 0x11 // 12900ns:  [F0001 0x55555555 0xf0f]
+ 0x11 // 13000ns:  [F0001 0x55555555 0xaaaaaaaa]
+ 0x11 // 13100ns:  [F0001 0x55555555 0x55555555]
+ 0x12 // 13200ns:  [F0010 0x0 0x0]
+ 0x12 // 13300ns:  [F0010 0x0 0xffffffff]
+ 0x12 // 13400ns:  [F0010 0x0 0x1234]
+ 0x12 // 13500ns:  [F0010 0x0 0xf0f]
+ 0x12 // 13600ns:  [F0010 0x0 0xaaaaaaaa]
+ 0x12 // 13700ns:  [F0010 0x0 0x55555555]
+ 0x12 // 13800ns:  [F0010 0xffffffff 0x0]
+ 0x12 // 13900ns:  [F0010 0xffffffff 0xffffffff]
+ 0x12 // 14000ns:  [F0010 0xffffffff 0x1234]
+ 0x12 // 14100ns:  [F0010 0xffffffff 0xf0f]
+ 0x12 // 14200ns:  [F0010 0xffffffff 0xaaaaaaaa]
+ 0x12 // 14300ns:  [F0010 0xffffffff 0x55555555]
+ 0x12 // 14400ns:  [F0010 0x1234 0x0]
+ 0x12 // 14500ns:  [F0010 0x1234 0xffffffff]
+ 0x12 // 14600ns:  [F0010 0x1234 0x1234]
+ 0x12 // 14700ns:  [F0010 0x1234 0xf0f]
+ 0x12 // 14800ns:  [F0010 0x1234 0xaaaaaaaa]
+ 0x12 // 14900ns:  [F0010 0x1234 0x55555555]
+ 0x12 // 15000ns:  [F0010 0xf0f 0x0]
+ 0x12 // 15100ns:  [F0010 0xf0f 0xffffffff]
+ 0x12 // 15200ns:  [F0010 0xf0f 0x1234]
+ 0x12 // 15300ns:  [F0010 0xf0f 0xf0f]
+ 0x12 // 15400ns:  [F0010 0xf0f 0xaaaaaaaa]
+ 0x12 // 15500ns:  [F0010 0xf0f 0x55555555]
+ 0x12 // 15600ns:  [F0010 0xaaaaaaaa 0x0]
+ 0x12 // 15700ns:  [F0010 0xaaaaaaaa 0xffffffff]
+ 0x12 // 15800ns:  [F0010 0xaaaaaaaa 0x1234]
+ 0x12 // 15900ns:  [F0010 0xaaaaaaaa 0xf0f]
+ 0x12 // 16000ns:  [F0010 0xaaaaaaaa 0xaaaaaaaa]
+ 0x12 // 16100ns:  [F0010 0xaaaaaaaa 0x55555555]
+ 0x12 // 16200ns:  [F0010 0x55555555 0x0]
+ 0x12 // 16300ns:  [F0010 0x55555555 0xffffffff]
+ 0x12 // 16400ns:  [F0010 0x55555555 0x1234]
+ 0x12 // 16500ns:  [F0010 0x55555555 0xf0f]
+ 0x12 // 16600ns:  [F0010 0x55555555 0xaaaaaaaa]
+ 0x12 // 16700ns:  [F0010 0x55555555 0x55555555]
+ 0x13 // 16800ns:  [F0011 0x0 0x0]
+ 0x13 // 16900ns:  [F0011 0x0 0xffffffff]
+ 0x13 // 17000ns:  [F0011 0x0 0x1234]
+ 0x13 // 17100ns:  [F0011 0x0 0xf0f]
+ 0x13 // 17200ns:  [F0011 0x0 0xaaaaaaaa]
+ 0x13 // 17300ns:  [F0011 0x0 0x55555555]
+ 0x13 // 17400ns:  [F0011 0xffffffff 0x0]
+ 0x13 // 17500ns:  [F0011 0xffffffff 0xffffffff]
+ 0x13 // 17600ns:  [F0011 0xffffffff 0x1234]
+ 0x13 // 17700ns:  [F0011 0xffffffff 0xf0f]
+ 0x13 // 17800ns:  [F0011 0xffffffff 0xaaaaaaaa]
+ 0x13 // 17900ns:  [F0011 0xffffffff 0x55555555]
+ 0x13 // 18000ns:  [F0011 0x1234 0x0]
+ 0x13 // 18100ns:  [F0011 0x1234 0xffffffff]
+ 0x13 // 18200ns:  [F0011 0x1234 0x1234]
+ 0x13 // 18300ns:  [F0011 0x1234 0xf0f]
+ 0x13 // 18400ns:  [F0011 0x1234 0xaaaaaaaa]
+ 0x13 // 18500ns:  [F0011 0x1234 0x55555555]
+ 0x13 // 18600ns:  [F0011 0xf0f 0x0]
+ 0x13 // 18700ns:  [F0011 0xf0f 0xffffffff]
+ 0x13 // 18800ns:  [F0011 0xf0f 0x1234]
+ 0x13 // 18900ns:  [F0011 0xf0f 0xf0f]
+ 0x13 // 19000ns:  [F0011 0xf0f 0xaaaaaaaa]
+ 0x13 // 19100ns:  [F0011 0xf0f 0x55555555]
+ 0x13 // 19200ns:  [F0011 0xaaaaaaaa 0x0]
+ 0x13 // 19300ns:  [F0011 0xaaaaaaaa 0xffffffff]
+ 0x13 // 19400ns:  [F0011 0xaaaaaaaa 0x1234]
+ 0x13 // 19500ns:  [F0011 0xaaaaaaaa 0xf0f]
+ 0x13 // 19600ns:  [F0011 0xaaaaaaaa 0xaaaaaaaa]
+ 0x13 // 19700ns:  [F0011 0xaaaaaaaa 0x55555555]
+ 0x13 // 19800ns:  [F0011 0x55555555 0x0]
+ 0x13 // 19900ns:  [F0011 0x55555555 0xffffffff]
+ 0x13 // 20000ns:  [F0011 0x55555555 0x1234]
+ 0x13 // 20100ns:  [F0011 0x55555555 0xf0f]
+ 0x13 // 20200ns:  [F0011 0x55555555 0xaaaaaaaa]
+ 0x13 // 20300ns:  [F0011 0x55555555 0x55555555]
+ 0x14 // 20400ns:  [F0100 0x0 0x0]
+ 0x14 // 20500ns:  [F0100 0x0 0xffffffff]
+ 0x14 // 20600ns:  [F0100 0x0 0x1234]
+ 0x14 // 20700ns:  [F0100 0x0 0xf0f]
+ 0x14 // 20800ns:  [F0100 0x0 0xaaaaaaaa]
+ 0x14 // 20900ns:  [F0100 0x0 0x55555555]
+ 0x14 // 21000ns:  [F0100 0xffffffff 0x0]
+ 0x14 // 21100ns:  [F0100 0xffffffff 0xffffffff]
+ 0x14 // 21200ns:  [F0100 0xffffffff 0x1234]
+ 0x14 // 21300ns:  [F0100 0xffffffff 0xf0f]
+ 0x14 // 21400ns:  [F0100 0xffffffff 0xaaaaaaaa]
+ 0x14 // 21500ns:  [F0100 0xffffffff 0x55555555]
+ 0x14 // 21600ns:  [F0100 0x1234 0x0]
+ 0x14 // 21700ns:  [F0100 0x1234 0xffffffff]
+ 0x14 // 21800ns:  [F0100 0x1234 0x1234]
+ 0x14 // 21900ns:  [F0100 0x1234 0xf0f]
+ 0x14 // 22000ns:  [F0100 0x1234 0xaaaaaaaa]
+ 0x14 // 22100ns:  [F0100 0x1234 0x55555555]
+ 0x14 // 22200ns:  [F0100 0xf0f 0x0]
+ 0x14 // 22300ns:  [F0100 0xf0f 0xffffffff]
+ 0x14 // 22400ns:  [F0100 0xf0f 0x1234]
+ 0x14 // 22500ns:  [F0100 0xf0f 0xf0f]
+ 0x14 // 22600ns:  [F0100 0xf0f 0xaaaaaaaa]
+ 0x14 // 22700ns:  [F0100 0xf0f 0x55555555]
+ 0x14 // 22800ns:  [F0100 0xaaaaaaaa 0x0]
+ 0x14 // 22900ns:  [F0100 0xaaaaaaaa 0xffffffff]
+ 0x14 // 23000ns:  [F0100 0xaaaaaaaa 0x1234]
+ 0x14 // 23100ns:  [F0100 0xaaaaaaaa 0xf0f]
+ 0x14 // 23200ns:  [F0100 0xaaaaaaaa 0xaaaaaaaa]
+ 0x14 // 23300ns:  [F0100 0xaaaaaaaa 0x55555555]
+ 0x14 // 23400ns:  [F0100 0x55555555 0x0]
+ 0x14 // 23500ns:  [F0100 0x55555555 0xffffffff]
+ 0x14 // 23600ns:  [F0100 0x55555555 0x1234]
+ 0x14 // 23700ns:  [F0100 0x55555555 0xf0f]
+ 0x14 // 23800ns:  [F0100 0x55555555 0xaaaaaaaa]
+ 0x14 // 23900ns:  [F0100 0x55555555 0x55555555]
+ 0x15 // 24000ns:  [F0101 0x0 0x0]
+ 0x15 // 24100ns:  [F0101 0x0 0xffffffff]
+ 0x15 // 24200ns:  [F0101 0x0 0x1234]
+ 0x15 // 24300ns:  [F0101 0x0 0xf0f]
+ 0x15 // 24400ns:  [F0101 0x0 0xaaaaaaaa]
+ 0x15 // 24500ns:  [F0101 0x0 0x55555555]
+ 0x15 // 24600ns:  [F0101 0xffffffff 0x0]
+ 0x15 // 24700ns:  [F0101 0xffffffff 0xffffffff]
+ 0x15 // 24800ns:  [F0101 0xffffffff 0x1234]
+ 0x15 // 24900ns:  [F0101 0xffffffff 0xf0f]
+ 0x15 // 25000ns:  [F0101 0xffffffff 0xaaaaaaaa]
+ 0x15 // 25100ns:  [F0101 0xffffffff 0x55555555]
+ 0x15 // 25200ns:  [F0101 0x1234 0x0]
+ 0x15 // 25300ns:  [F0101 0x1234 0xffffffff]
+ 0x15 // 25400ns:  [F0101 0x1234 0x1234]
+ 0x15 // 25500ns:  [F0101 0x1234 0xf0f]
+ 0x15 // 25600ns:  [F0101 0x1234 0xaaaaaaaa]
+ 0x15 // 25700ns:  [F0101 0x1234 0x55555555]
+ 0x15 // 25800ns:  [F0101 0xf0f 0x0]
+ 0x15 // 25900ns:  [F0101 0xf0f 0xffffffff]
+ 0x15 // 26000ns:  [F0101 0xf0f 0x1234]
+ 0x15 // 26100ns:  [F0101 0xf0f 0xf0f]
+ 0x15 // 26200ns:  [F0101 0xf0f 0xaaaaaaaa]
+ 0x15 // 26300ns:  [F0101 0xf0f 0x55555555]
+ 0x15 // 26400ns:  [F0101 0xaaaaaaaa 0x0]
+ 0x15 // 26500ns:  [F0101 0xaaaaaaaa 0xffffffff]
+ 0x15 // 26600ns:  [F0101 0xaaaaaaaa 0x1234]
+ 0x15 // 26700ns:  [F0101 0xaaaaaaaa 0xf0f]
+ 0x15 // 26800ns:  [F0101 0xaaaaaaaa 0xaaaaaaaa]
+ 0x15 // 26900ns:  [F0101 0xaaaaaaaa 0x55555555]
+ 0x15 // 27000ns:  [F0101 0x55555555 0x0]
+ 0x15 // 27100ns:  [F0101 0x55555555 0xffffffff]
+ 0x15 // 27200ns:  [F0101 0x55555555 0x1234]
+ 0x15 // 27300ns:  [F0101 0x55555555 0xf0f]
+ 0x15 // 27400ns:  [F0101 0x55555555 0xaaaaaaaa]
+ 0x15 // 27500ns:  [F0101 0x55555555 0x55555555]
+ 0x16 // 27600ns:  [XOR 0x0 0x0]
+ 0x16 // 27700ns:  [XOR 0x0 0xffffffff]
+ 0x16 // 27800ns:  [XOR 0x0 0x1234]
+ 0x16 // 27900ns:  [XOR 0x0 0xf0f]
+ 0x16 // 28000ns:  [XOR 0x0 0xaaaaaaaa]
+ 0x16 // 28100ns:  [XOR 0x0 0x55555555]
+ 0x16 // 28200ns:  [XOR 0xffffffff 0x0]
+ 0x16 // 28300ns:  [XOR 0xffffffff 0xffffffff]
+ 0x16 // 28400ns:  [XOR 0xffffffff 0x1234]
+ 0x16 // 28500ns:  [XOR 0xffffffff 0xf0f]
+ 0x16 // 28600ns:  [XOR 0xffffffff 0xaaaaaaaa]
+ 0x16 // 28700ns:  [XOR 0xffffffff 0x55555555]
+ 0x16 // 28800ns:  [XOR 0x1234 0x0]
+ 0x16 // 28900ns:  [XOR 0x1234 0xffffffff]
+ 0x16 // 29000ns:  [XOR 0x1234 0x1234]
+ 0x16 // 29100ns:  [XOR 0x1234 0xf0f]
+ 0x16 // 29200ns:  [XOR 0x1234 0xaaaaaaaa]
+ 0x16 // 29300ns:  [XOR 0x1234 0x55555555]
+ 0x16 // 29400ns:  [XOR 0xf0f 0x0]
+ 0x16 // 29500ns:  [XOR 0xf0f 0xffffffff]
+ 0x16 // 29600ns:  [XOR 0xf0f 0x1234]
+ 0x16 // 29700ns:  [XOR 0xf0f 0xf0f]
+ 0x16 // 29800ns:  [XOR 0xf0f 0xaaaaaaaa]
+ 0x16 // 29900ns:  [XOR 0xf0f 0x55555555]
+ 0x16 // 30000ns:  [XOR 0xaaaaaaaa 0x0]
+ 0x16 // 30100ns:  [XOR 0xaaaaaaaa 0xffffffff]
+ 0x16 // 30200ns:  [XOR 0xaaaaaaaa 0x1234]
+ 0x16 // 30300ns:  [XOR 0xaaaaaaaa 0xf0f]
+ 0x16 // 30400ns:  [XOR 0xaaaaaaaa 0xaaaaaaaa]
+ 0x16 // 30500ns:  [XOR 0xaaaaaaaa 0x55555555]
+ 0x16 // 30600ns:  [XOR 0x55555555 0x0]
+ 0x16 // 30700ns:  [XOR 0x55555555 0xffffffff]
+ 0x16 // 30800ns:  [XOR 0x55555555 0x1234]
+ 0x16 // 30900ns:  [XOR 0x55555555 0xf0f]
+ 0x16 // 31000ns:  [XOR 0x55555555 0xaaaaaaaa]
+ 0x16 // 31100ns:  [XOR 0x55555555 0x55555555]
+ 0x17 // 31200ns:  [F0111 0x0 0x0]
+ 0x17 // 31300ns:  [F0111 0x0 0xffffffff]
+ 0x17 // 31400ns:  [F0111 0x0 0x1234]
+ 0x17 // 31500ns:  [F0111 0x0 0xf0f]
+ 0x17 // 31600ns:  [F0111 0x0 0xaaaaaaaa]
+ 0x17 // 31700ns:  [F0111 0x0 0x55555555]
+ 0x17 // 31800ns:  [F0111 0xffffffff 0x0]
+ 0x17 // 31900ns:  [F0111 0xffffffff 0xffffffff]
+ 0x17 // 32000ns:  [F0111 0xffffffff 0x1234]
+ 0x17 // 32100ns:  [F0111 0xffffffff 0xf0f]
+ 0x17 // 32200ns:  [F0111 0xffffffff 0xaaaaaaaa]
+ 0x17 // 32300ns:  [F0111 0xffffffff 0x55555555]
+ 0x17 // 32400ns:  [F0111 0x1234 0x0]
+ 0x17 // 32500ns:  [F0111 0x1234 0xffffffff]
+ 0x17 // 32600ns:  [F0111 0x1234 0x1234]
+ 0x17 // 32700ns:  [F0111 0x1234 0xf0f]
+ 0x17 // 32800ns:  [F0111 0x1234 0xaaaaaaaa]
+ 0x17 // 32900ns:  [F0111 0x1234 0x55555555]
+ 0x17 // 33000ns:  [F0111 0xf0f 0x0]
+ 0x17 // 33100ns:  [F0111 0xf0f 0xffffffff]
+ 0x17 // 33200ns:  [F0111 0xf0f 0x1234]
+ 0x17 // 33300ns:  [F0111 0xf0f 0xf0f]
+ 0x17 // 33400ns:  [F0111 0xf0f 0xaaaaaaaa]
+ 0x17 // 33500ns:  [F0111 0xf0f 0x55555555]
+ 0x17 // 33600ns:  [F0111 0xaaaaaaaa 0x0]
+ 0x17 // 33700ns:  [F0111 0xaaaaaaaa 0xffffffff]
+ 0x17 // 33800ns:  [F0111 0xaaaaaaaa 0x1234]
+ 0x17 // 33900ns:  [F0111 0xaaaaaaaa 0xf0f]
+ 0x17 // 34000ns:  [F0111 0xaaaaaaaa 0xaaaaaaaa]
+ 0x17 // 34100ns:  [F0111 0xaaaaaaaa 0x55555555]
+ 0x17 // 34200ns:  [F0111 0x55555555 0x0]
+ 0x17 // 34300ns:  [F0111 0x55555555 0xffffffff]
+ 0x17 // 34400ns:  [F0111 0x55555555 0x1234]
+ 0x17 // 34500ns:  [F0111 0x55555555 0xf0f]
+ 0x17 // 34600ns:  [F0111 0x55555555 0xaaaaaaaa]
+ 0x17 // 34700ns:  [F0111 0x55555555 0x55555555]
+ 0x18 // 34800ns:  [AND 0x0 0x0]
+ 0x18 // 34900ns:  [AND 0x0 0xffffffff]
+ 0x18 // 35000ns:  [AND 0x0 0x1234]
+ 0x18 // 35100ns:  [AND 0x0 0xf0f]
+ 0x18 // 35200ns:  [AND 0x0 0xaaaaaaaa]
+ 0x18 // 35300ns:  [AND 0x0 0x55555555]
+ 0x18 // 35400ns:  [AND 0xffffffff 0x0]
+ 0x18 // 35500ns:  [AND 0xffffffff 0xffffffff]
+ 0x18 // 35600ns:  [AND 0xffffffff 0x1234]
+ 0x18 // 35700ns:  [AND 0xffffffff 0xf0f]
+ 0x18 // 35800ns:  [AND 0xffffffff 0xaaaaaaaa]
+ 0x18 // 35900ns:  [AND 0xffffffff 0x55555555]
+ 0x18 // 36000ns:  [AND 0x1234 0x0]
+ 0x18 // 36100ns:  [AND 0x1234 0xffffffff]
+ 0x18 // 36200ns:  [AND 0x1234 0x1234]
+ 0x18 // 36300ns:  [AND 0x1234 0xf0f]
+ 0x18 // 36400ns:  [AND 0x1234 0xaaaaaaaa]
+ 0x18 // 36500ns:  [AND 0x1234 0x55555555]
+ 0x18 // 36600ns:  [AND 0xf0f 0x0]
+ 0x18 // 36700ns:  [AND 0xf0f 0xffffffff]
+ 0x18 // 36800ns:  [AND 0xf0f 0x1234]
+ 0x18 // 36900ns:  [AND 0xf0f 0xf0f]
+ 0x18 // 37000ns:  [AND 0xf0f 0xaaaaaaaa]
+ 0x18 // 37100ns:  [AND 0xf0f 0x55555555]
+ 0x18 // 37200ns:  [AND 0xaaaaaaaa 0x0]
+ 0x18 // 37300ns:  [AND 0xaaaaaaaa 0xffffffff]
+ 0x18 // 37400ns:  [AND 0xaaaaaaaa 0x1234]
+ 0x18 // 37500ns:  [AND 0xaaaaaaaa 0xf0f]
+ 0x18 // 37600ns:  [AND 0xaaaaaaaa 0xaaaaaaaa]
+ 0x18 // 37700ns:  [AND 0xaaaaaaaa 0x55555555]
+ 0x18 // 37800ns:  [AND 0x55555555 0x0]
+ 0x18 // 37900ns:  [AND 0x55555555 0xffffffff]
+ 0x18 // 38000ns:  [AND 0x55555555 0x1234]
+ 0x18 // 38100ns:  [AND 0x55555555 0xf0f]
+ 0x18 // 38200ns:  [AND 0x55555555 0xaaaaaaaa]
+ 0x18 // 38300ns:  [AND 0x55555555 0x55555555]
+ 0x19 // 38400ns:  [XNOR 0x0 0x0]
+ 0x19 // 38500ns:  [XNOR 0x0 0xffffffff]
+ 0x19 // 38600ns:  [XNOR 0x0 0x1234]
+ 0x19 // 38700ns:  [XNOR 0x0 0xf0f]
+ 0x19 // 38800ns:  [XNOR 0x0 0xaaaaaaaa]
+ 0x19 // 38900ns:  [XNOR 0x0 0x55555555]
+ 0x19 // 39000ns:  [XNOR 0xffffffff 0x0]
+ 0x19 // 39100ns:  [XNOR 0xffffffff 0xffffffff]
+ 0x19 // 39200ns:  [XNOR 0xffffffff 0x1234]
+ 0x19 // 39300ns:  [XNOR 0xffffffff 0xf0f]
+ 0x19 // 39400ns:  [XNOR 0xffffffff 0xaaaaaaaa]
+ 0x19 // 39500ns:  [XNOR 0xffffffff 0x55555555]
+ 0x19 // 39600ns:  [XNOR 0x1234 0x0]
+ 0x19 // 39700ns:  [XNOR 0x1234 0xffffffff]
+ 0x19 // 39800ns:  [XNOR 0x1234 0x1234]
+ 0x19 // 39900ns:  [XNOR 0x1234 0xf0f]
+ 0x19 // 40000ns:  [XNOR 0x1234 0xaaaaaaaa]
+ 0x19 // 40100ns:  [XNOR 0x1234 0x55555555]
+ 0x19 // 40200ns:  [XNOR 0xf0f 0x0]
+ 0x19 // 40300ns:  [XNOR 0xf0f 0xffffffff]
+ 0x19 // 40400ns:  [XNOR 0xf0f 0x1234]
+ 0x19 // 40500ns:  [XNOR 0xf0f 0xf0f]
+ 0x19 // 40600ns:  [XNOR 0xf0f 0xaaaaaaaa]
+ 0x19 // 40700ns:  [XNOR 0xf0f 0x55555555]
+ 0x19 // 40800ns:  [XNOR 0xaaaaaaaa 0x0]
+ 0x19 // 40900ns:  [XNOR 0xaaaaaaaa 0xffffffff]
+ 0x19 // 41000ns:  [XNOR 0xaaaaaaaa 0x1234]
+ 0x19 // 41100ns:  [XNOR 0xaaaaaaaa 0xf0f]
+ 0x19 // 41200ns:  [XNOR 0xaaaaaaaa 0xaaaaaaaa]
+ 0x19 // 41300ns:  [XNOR 0xaaaaaaaa 0x55555555]
+ 0x19 // 41400ns:  [XNOR 0x55555555 0x0]
+ 0x19 // 41500ns:  [XNOR 0x55555555 0xffffffff]
+ 0x19 // 41600ns:  [XNOR 0x55555555 0x1234]
+ 0x19 // 41700ns:  [XNOR 0x55555555 0xf0f]
+ 0x19 // 41800ns:  [XNOR 0x55555555 0xaaaaaaaa]
+ 0x19 // 41900ns:  [XNOR 0x55555555 0x55555555]
+ 0x1a // 42000ns:  [A 0x0 0x0]
+ 0x1a // 42100ns:  [A 0x0 0xffffffff]
+ 0x1a // 42200ns:  [A 0x0 0x1234]
+ 0x1a // 42300ns:  [A 0x0 0xf0f]
+ 0x1a // 42400ns:  [A 0x0 0xaaaaaaaa]
+ 0x1a // 42500ns:  [A 0x0 0x55555555]
+ 0x1a // 42600ns:  [A 0xffffffff 0x0]
+ 0x1a // 42700ns:  [A 0xffffffff 0xffffffff]
+ 0x1a // 42800ns:  [A 0xffffffff 0x1234]
+ 0x1a // 42900ns:  [A 0xffffffff 0xf0f]
+ 0x1a // 43000ns:  [A 0xffffffff 0xaaaaaaaa]
+ 0x1a // 43100ns:  [A 0xffffffff 0x55555555]
+ 0x1a // 43200ns:  [A 0x1234 0x0]
+ 0x1a // 43300ns:  [A 0x1234 0xffffffff]
+ 0x1a // 43400ns:  [A 0x1234 0x1234]
+ 0x1a // 43500ns:  [A 0x1234 0xf0f]
+ 0x1a // 43600ns:  [A 0x1234 0xaaaaaaaa]
+ 0x1a // 43700ns:  [A 0x1234 0x55555555]
+ 0x1a // 43800ns:  [A 0xf0f 0x0]
+ 0x1a // 43900ns:  [A 0xf0f 0xffffffff]
+ 0x1a // 44000ns:  [A 0xf0f 0x1234]
+ 0x1a // 44100ns:  [A 0xf0f 0xf0f]
+ 0x1a // 44200ns:  [A 0xf0f 0xaaaaaaaa]
+ 0x1a // 44300ns:  [A 0xf0f 0x55555555]
+ 0x1a // 44400ns:  [A 0xaaaaaaaa 0x0]
+ 0x1a // 44500ns:  [A 0xaaaaaaaa 0xffffffff]
+ 0x1a // 44600ns:  [A 0xaaaaaaaa 0x1234]
+ 0x1a // 44700ns:  [A 0xaaaaaaaa 0xf0f]
+ 0x1a // 44800ns:  [A 0xaaaaaaaa 0xaaaaaaaa]
+ 0x1a // 44900ns:  [A 0xaaaaaaaa 0x55555555]
+ 0x1a // 45000ns:  [A 0x55555555 0x0]
+ 0x1a // 45100ns:  [A 0x55555555 0xffffffff]
+ 0x1a // 45200ns:  [A 0x55555555 0x1234]
+ 0x1a // 45300ns:  [A 0x55555555 0xf0f]
+ 0x1a // 45400ns:  [A 0x55555555 0xaaaaaaaa]
+ 0x1a // 45500ns:  [A 0x55555555 0x55555555]
+ 0x1b // 45600ns:  [F1011 0x0 0x0]
+ 0x1b // 45700ns:  [F1011 0x0 0xffffffff]
+ 0x1b // 45800ns:  [F1011 0x0 0x1234]
+ 0x1b // 45900ns:  [F1011 0x0 0xf0f]
+ 0x1b // 46000ns:  [F1011 0x0 0xaaaaaaaa]
+ 0x1b // 46100ns:  [F1011 0x0 0x55555555]
+ 0x1b // 46200ns:  [F1011 0xffffffff 0x0]
+ 0x1b // 46300ns:  [F1011 0xffffffff 0xffffffff]
+ 0x1b // 46400ns:  [F1011 0xffffffff 0x1234]
+ 0x1b // 46500ns:  [F1011 0xffffffff 0xf0f]
+ 0x1b // 46600ns:  [F1011 0xffffffff 0xaaaaaaaa]
+ 0x1b // 46700ns:  [F1011 0xffffffff 0x55555555]
+ 0x1b // 46800ns:  [F1011 0x1234 0x0]
+ 0x1b // 46900ns:  [F1011 0x1234 0xffffffff]
+ 0x1b // 47000ns:  [F1011 0x1234 0x1234]
+ 0x1b // 47100ns:  [F1011 0x1234 0xf0f]
+ 0x1b // 47200ns:  [F1011 0x1234 0xaaaaaaaa]
+ 0x1b // 47300ns:  [F1011 0x1234 0x55555555]
+ 0x1b // 47400ns:  [F1011 0xf0f 0x0]
+ 0x1b // 47500ns:  [F1011 0xf0f 0xffffffff]
+ 0x1b // 47600ns:  [F1011 0xf0f 0x1234]
+ 0x1b // 47700ns:  [F1011 0xf0f 0xf0f]
+ 0x1b // 47800ns:  [F1011 0xf0f 0xaaaaaaaa]
+ 0x1b // 47900ns:  [F1011 0xf0f 0x55555555]
+ 0x1b // 48000ns:  [F1011 0xaaaaaaaa 0x0]
+ 0x1b // 48100ns:  [F1011 0xaaaaaaaa 0xffffffff]
+ 0x1b // 48200ns:  [F1011 0xaaaaaaaa 0x1234]
+ 0x1b // 48300ns:  [F1011 0xaaaaaaaa 0xf0f]
+ 0x1b // 48400ns:  [F1011 0xaaaaaaaa 0xaaaaaaaa]
+ 0x1b // 48500ns:  [F1011 0xaaaaaaaa 0x55555555]
+ 0x1b // 48600ns:  [F1011 0x55555555 0x0]
+ 0x1b // 48700ns:  [F1011 0x55555555 0xffffffff]
+ 0x1b // 48800ns:  [F1011 0x55555555 0x1234]
+ 0x1b // 48900ns:  [F1011 0x55555555 0xf0f]
+ 0x1b // 49000ns:  [F1011 0x55555555 0xaaaaaaaa]
+ 0x1b // 49100ns:  [F1011 0x55555555 0x55555555]
+ 0x1c // 49200ns:  [F1100 0x0 0x0]
+ 0x1c // 49300ns:  [F1100 0x0 0xffffffff]
+ 0x1c // 49400ns:  [F1100 0x0 0x1234]
+ 0x1c // 49500ns:  [F1100 0x0 0xf0f]
+ 0x1c // 49600ns:  [F1100 0x0 0xaaaaaaaa]
+ 0x1c // 49700ns:  [F1100 0x0 0x55555555]
+ 0x1c // 49800ns:  [F1100 0xffffffff 0x0]
+ 0x1c // 49900ns:  [F1100 0xffffffff 0xffffffff]
+ 0x1c // 50000ns:  [F1100 0xffffffff 0x1234]
+ 0x1c // 50100ns:  [F1100 0xffffffff 0xf0f]
+ 0x1c // 50200ns:  [F1100 0xffffffff 0xaaaaaaaa]
+ 0x1c // 50300ns:  [F1100 0xffffffff 0x55555555]
+ 0x1c // 50400ns:  [F1100 0x1234 0x0]
+ 0x1c // 50500ns:  [F1100 0x1234 0xffffffff]
+ 0x1c // 50600ns:  [F1100 0x1234 0x1234]
+ 0x1c // 50700ns:  [F1100 0x1234 0xf0f]
+ 0x1c // 50800ns:  [F1100 0x1234 0xaaaaaaaa]
+ 0x1c // 50900ns:  [F1100 0x1234 0x55555555]
+ 0x1c // 51000ns:  [F1100 0xf0f 0x0]
+ 0x1c // 51100ns:  [F1100 0xf0f 0xffffffff]
+ 0x1c // 51200ns:  [F1100 0xf0f 0x1234]
+ 0x1c // 51300ns:  [F1100 0xf0f 0xf0f]
+ 0x1c // 51400ns:  [F1100 0xf0f 0xaaaaaaaa]
+ 0x1c // 51500ns:  [F1100 0xf0f 0x55555555]
+ 0x1c // 51600ns:  [F1100 0xaaaaaaaa 0x0]
+ 0x1c // 51700ns:  [F1100 0xaaaaaaaa 0xffffffff]
+ 0x1c // 51800ns:  [F1100 0xaaaaaaaa 0x1234]
+ 0x1c // 51900ns:  [F1100 0xaaaaaaaa 0xf0f]
+ 0x1c // 52000ns:  [F1100 0xaaaaaaaa 0xaaaaaaaa]
+ 0x1c // 52100ns:  [F1100 0xaaaaaaaa 0x55555555]
+ 0x1c // 52200ns:  [F1100 0x55555555 0x0]
+ 0x1c // 52300ns:  [F1100 0x55555555 0xffffffff]
+ 0x1c // 52400ns:  [F1100 0x55555555 0x1234]
+ 0x1c // 52500ns:  [F1100 0x55555555 0xf0f]
+ 0x1c // 52600ns:  [F1100 0x55555555 0xaaaaaaaa]
+ 0x1c // 52700ns:  [F1100 0x55555555 0x55555555]
+ 0x1d // 52800ns:  [F1101 0x0 0x0]
+ 0x1d // 52900ns:  [F1101 0x0 0xffffffff]
+ 0x1d // 53000ns:  [F1101 0x0 0x1234]
+ 0x1d // 53100ns:  [F1101 0x0 0xf0f]
+ 0x1d // 53200ns:  [F1101 0x0 0xaaaaaaaa]
+ 0x1d // 53300ns:  [F1101 0x0 0x55555555]
+ 0x1d // 53400ns:  [F1101 0xffffffff 0x0]
+ 0x1d // 53500ns:  [F1101 0xffffffff 0xffffffff]
+ 0x1d // 53600ns:  [F1101 0xffffffff 0x1234]
+ 0x1d // 53700ns:  [F1101 0xffffffff 0xf0f]
+ 0x1d // 53800ns:  [F1101 0xffffffff 0xaaaaaaaa]
+ 0x1d // 53900ns:  [F1101 0xffffffff 0x55555555]
+ 0x1d // 54000ns:  [F1101 0x1234 0x0]
+ 0x1d // 54100ns:  [F1101 0x1234 0xffffffff]
+ 0x1d // 54200ns:  [F1101 0x1234 0x1234]
+ 0x1d // 54300ns:  [F1101 0x1234 0xf0f]
+ 0x1d // 54400ns:  [F1101 0x1234 0xaaaaaaaa]
+ 0x1d // 54500ns:  [F1101 0x1234 0x55555555]
+ 0x1d // 54600ns:  [F1101 0xf0f 0x0]
+ 0x1d // 54700ns:  [F1101 0xf0f 0xffffffff]
+ 0x1d // 54800ns:  [F1101 0xf0f 0x1234]
+ 0x1d // 54900ns:  [F1101 0xf0f 0xf0f]
+ 0x1d // 55000ns:  [F1101 0xf0f 0xaaaaaaaa]
+ 0x1d // 55100ns:  [F1101 0xf0f 0x55555555]
+ 0x1d // 55200ns:  [F1101 0xaaaaaaaa 0x0]
+ 0x1d // 55300ns:  [F1101 0xaaaaaaaa 0xffffffff]
+ 0x1d // 55400ns:  [F1101 0xaaaaaaaa 0x1234]
+ 0x1d // 55500ns:  [F1101 0xaaaaaaaa 0xf0f]
+ 0x1d // 55600ns:  [F1101 0xaaaaaaaa 0xaaaaaaaa]
+ 0x1d // 55700ns:  [F1101 0xaaaaaaaa 0x55555555]
+ 0x1d // 55800ns:  [F1101 0x55555555 0x0]
+ 0x1d // 55900ns:  [F1101 0x55555555 0xffffffff]
+ 0x1d // 56000ns:  [F1101 0x55555555 0x1234]
+ 0x1d // 56100ns:  [F1101 0x55555555 0xf0f]
+ 0x1d // 56200ns:  [F1101 0x55555555 0xaaaaaaaa]
+ 0x1d // 56300ns:  [F1101 0x55555555 0x55555555]
+ 0x1e // 56400ns:  [OR 0x0 0x0]
+ 0x1e // 56500ns:  [OR 0x0 0xffffffff]
+ 0x1e // 56600ns:  [OR 0x0 0x1234]
+ 0x1e // 56700ns:  [OR 0x0 0xf0f]
+ 0x1e // 56800ns:  [OR 0x0 0xaaaaaaaa]
+ 0x1e // 56900ns:  [OR 0x0 0x55555555]
+ 0x1e // 57000ns:  [OR 0xffffffff 0x0]
+ 0x1e // 57100ns:  [OR 0xffffffff 0xffffffff]
+ 0x1e // 57200ns:  [OR 0xffffffff 0x1234]
+ 0x1e // 57300ns:  [OR 0xffffffff 0xf0f]
+ 0x1e // 57400ns:  [OR 0xffffffff 0xaaaaaaaa]
+ 0x1e // 57500ns:  [OR 0xffffffff 0x55555555]
+ 0x1e // 57600ns:  [OR 0x1234 0x0]
+ 0x1e // 57700ns:  [OR 0x1234 0xffffffff]
+ 0x1e // 57800ns:  [OR 0x1234 0x1234]
+ 0x1e // 57900ns:  [OR 0x1234 0xf0f]
+ 0x1e // 58000ns:  [OR 0x1234 0xaaaaaaaa]
+ 0x1e // 58100ns:  [OR 0x1234 0x55555555]
+ 0x1e // 58200ns:  [OR 0xf0f 0x0]
+ 0x1e // 58300ns:  [OR 0xf0f 0xffffffff]
+ 0x1e // 58400ns:  [OR 0xf0f 0x1234]
+ 0x1e // 58500ns:  [OR 0xf0f 0xf0f]
+ 0x1e // 58600ns:  [OR 0xf0f 0xaaaaaaaa]
+ 0x1e // 58700ns:  [OR 0xf0f 0x55555555]
+ 0x1e // 58800ns:  [OR 0xaaaaaaaa 0x0]
+ 0x1e // 58900ns:  [OR 0xaaaaaaaa 0xffffffff]
+ 0x1e // 59000ns:  [OR 0xaaaaaaaa 0x1234]
+ 0x1e // 59100ns:  [OR 0xaaaaaaaa 0xf0f]
+ 0x1e // 59200ns:  [OR 0xaaaaaaaa 0xaaaaaaaa]
+ 0x1e // 59300ns:  [OR 0xaaaaaaaa 0x55555555]
+ 0x1e // 59400ns:  [OR 0x55555555 0x0]
+ 0x1e // 59500ns:  [OR 0x55555555 0xffffffff]
+ 0x1e // 59600ns:  [OR 0x55555555 0x1234]
+ 0x1e // 59700ns:  [OR 0x55555555 0xf0f]
+ 0x1e // 59800ns:  [OR 0x55555555 0xaaaaaaaa]
+ 0x1e // 59900ns:  [OR 0x55555555 0x55555555]
+ 0x1f // 60000ns:  [F1111 0x0 0x0]
+ 0x1f // 60100ns:  [F1111 0x0 0xffffffff]
+ 0x1f // 60200ns:  [F1111 0x0 0x1234]
+ 0x1f // 60300ns:  [F1111 0x0 0xf0f]
+ 0x1f // 60400ns:  [F1111 0x0 0xaaaaaaaa]
+ 0x1f // 60500ns:  [F1111 0x0 0x55555555]
+ 0x1f // 60600ns:  [F1111 0xffffffff 0x0]
+ 0x1f // 60700ns:  [F1111 0xffffffff 0xffffffff]
+ 0x1f // 60800ns:  [F1111 0xffffffff 0x1234]
+ 0x1f // 60900ns:  [F1111 0xffffffff 0xf0f]
+ 0x1f // 61000ns:  [F1111 0xffffffff 0xaaaaaaaa]
+ 0x1f // 61100ns:  [F1111 0xffffffff 0x55555555]
+ 0x1f // 61200ns:  [F1111 0x1234 0x0]
+ 0x1f // 61300ns:  [F1111 0x1234 0xffffffff]
+ 0x1f // 61400ns:  [F1111 0x1234 0x1234]
+ 0x1f // 61500ns:  [F1111 0x1234 0xf0f]
+ 0x1f // 61600ns:  [F1111 0x1234 0xaaaaaaaa]
+ 0x1f // 61700ns:  [F1111 0x1234 0x55555555]
+ 0x1f // 61800ns:  [F1111 0xf0f 0x0]
+ 0x1f // 61900ns:  [F1111 0xf0f 0xffffffff]
+ 0x1f // 62000ns:  [F1111 0xf0f 0x1234]
+ 0x1f // 62100ns:  [F1111 0xf0f 0xf0f]
+ 0x1f // 62200ns:  [F1111 0xf0f 0xaaaaaaaa]
+ 0x1f // 62300ns:  [F1111 0xf0f 0x55555555]
+ 0x1f // 62400ns:  [F1111 0xaaaaaaaa 0x0]
+ 0x1f // 62500ns:  [F1111 0xaaaaaaaa 0xffffffff]
+ 0x1f // 62600ns:  [F1111 0xaaaaaaaa 0x1234]
+ 0x1f // 62700ns:  [F1111 0xaaaaaaaa 0xf0f]
+ 0x1f // 62800ns:  [F1111 0xaaaaaaaa 0xaaaaaaaa]
+ 0x1f // 62900ns:  [F1111 0xaaaaaaaa 0x55555555]
+ 0x1f // 63000ns:  [F1111 0x55555555 0x0]
+ 0x1f // 63100ns:  [F1111 0x55555555 0xffffffff]
+ 0x1f // 63200ns:  [F1111 0x55555555 0x1234]
+ 0x1f // 63300ns:  [F1111 0x55555555 0xf0f]
+ 0x1f // 63400ns:  [F1111 0x55555555 0xaaaaaaaa]
+ 0x1f // 63500ns:  [F1111 0x55555555 0x55555555]
+ 0x8 // 63600ns: SHL [SHL 0x1 0x0]
+ 0x9 // 63700ns: SHR [SHR 0x1 0x0]
+ 0xb // 63800ns: SRA 0x1 >> 0 [SRA 0x1 0x0]
+ 0x8 // 63900ns: SHL [SHL 0x3 0x0]
+ 0x9 // 64000ns: SHR [SHR 0x3 0x0]
+ 0xb // 64100ns: SRA 0x3 >> 0 [SRA 0x3 0x0]
+ 0x8 // 64200ns: SHL [SHL 0x1234 0x0]
+ 0x9 // 64300ns: SHR [SHR 0x1234 0x0]
+ 0xb // 64400ns: SRA 0x1234 >> 0 [SRA 0x1234 0x0]
+ 0x8 // 64500ns: SHL [SHL 0xffff1234 0x0]
+ 0x9 // 64600ns: SHR [SHR 0xffff1234 0x0]
+ 0xb // 64700ns: SRA 0xffff1234 >> 0 [SRA 0xffff1234 0x0]
+ 0x8 // 64800ns: SHL [SHL 0xffffffff 0x0]
+ 0x9 // 64900ns: SHR [SHR 0xffffffff 0x0]
+ 0xb // 65000ns: SRA 0xffffffff >> 0 [SRA 0xffffffff 0x0]
+ 0x8 // 65100ns: SHL [SHL 0x1 0x1]
+ 0x9 // 65200ns: SHR [SHR 0x1 0x1]
+ 0xb // 65300ns: SRA 0x1 >> 1 [SRA 0x1 0x1]
+ 0x8 // 65400ns: SHL [SHL 0x3 0x1]
+ 0x9 // 65500ns: SHR [SHR 0x3 0x1]
+ 0xb // 65600ns: SRA 0x3 >> 1 [SRA 0x3 0x1]
+ 0x8 // 65700ns: SHL [SHL 0x1234 0x1]
+ 0x9 // 65800ns: SHR [SHR 0x1234 0x1]
+ 0xb // 65900ns: SRA 0x1234 >> 1 [SRA 0x1234 0x1]
+ 0x8 // 66000ns: SHL [SHL 0xffff1234 0x1]
+ 0x9 // 66100ns: SHR [SHR 0xffff1234 0x1]
+ 0xb // 66200ns: SRA 0xffff1234 >> 1 [SRA 0xffff1234 0x1]
+ 0x8 // 66300ns: SHL [SHL 0xffffffff 0x1]
+ 0x9 // 66400ns: SHR [SHR 0xffffffff 0x1]
+ 0xb // 66500ns: SRA 0xffffffff >> 1 [SRA 0xffffffff 0x1]
+ 0x8 // 66600ns: SHL [SHL 0x1 0x2]
+ 0x9 // 66700ns: SHR [SHR 0x1 0x2]
+ 0xb // 66800ns: SRA 0x1 >> 2 [SRA 0x1 0x2]
+ 0x8 // 66900ns: SHL [SHL 0x3 0x2]
+ 0x9 // 67000ns: SHR [SHR 0x3 0x2]