.global vdd
VDD vdd gnd 1v
.options vil=0.2 vih=.8

Vin in gnd 0V
Vds vds gnd 0V

Vn vds ndrain 0V  // ammeter
Vp pdrain vds 0v

Ntest ndrain in gnd
Ptest vdd in pdrain

.dc Vds 0 1 .01 Vin 0 1 .2
.plot I(Vn)
.plot I(Vp)
